<?xml version="1.0" encoding="UTF-8"?>

<!-- generated on 01/18/19 10:45:45 by Eclipse SUMO netedit Version 1.0.1
<configuration xmlns:xsi="http://www.w3.org/2001/XMLSchema-instance" xsi:noNamespaceSchemaLocation="http://sumo.dlr.de/xsd/netconvertConfiguration.xsd">

    <input>
        <sumo-net-file value="C:\Users\chris\Desktop\TestStrecke.net.xml"/>
    </input>

    <output>
        <output-file value="C:\Users\chris\Desktop\TestStrecke.net.xml"/>
    </output>

    <processing>
        <offset.disable-normalization value="true"/>
        <lefthand value="false"/>
    </processing>

    <junctions>
        <no-turnarounds value="true"/>
        <junctions.corner-detail value="5"/>
        <junctions.limit-turn-speed value="5.5"/>
        <rectangular-lane-cut value="false"/>
    </junctions>

    <pedestrian>
        <walkingareas value="false"/>
    </pedestrian>

</configuration>
-->

<net version="1.0" junctionCornerDetail="5" limitTurnSpeed="5.50" xmlns:xsi="http://www.w3.org/2001/XMLSchema-instance" xsi:noNamespaceSchemaLocation="http://sumo.dlr.de/xsd/net_file.xsd">

    <location netOffset="0.00,0.00" convBoundary="-364.70,189.72,43.50,343.19" origBoundary="-10000000000.00,-10000000000.00,10000000000.00,10000000000.00" projParameter="!"/>

    <edge id=":gneJ11_0" function="internal">
        <lane id=":gneJ11_0_0" index="0" speed="13.89" length="1.34" shape="-207.64,344.79 -208.03,344.79 -208.30,344.77 -208.57,344.71 -208.95,344.61"/>
    </edge>
    <edge id=":gneJ11_1" function="internal">
        <lane id=":gneJ11_1_0" index="0" speed="13.89" length="0.45" shape="-208.09,341.53 -207.96,341.56 -207.87,341.58 -207.78,341.59 -207.65,341.59"/>
    </edge>
    <edge id=":gneJ12_0" function="internal">
        <lane id=":gneJ12_0_0" index="0" speed="6.25" length="5.39" shape="-20.23,341.45 -20.99,342.63 -21.96,343.48 -23.14,343.99 -24.54,344.17"/>
    </edge>
    <edge id=":gneJ12_1" function="internal">
        <lane id=":gneJ12_1_0" index="0" speed="3.99" length="1.80" shape="-24.55,340.97 -24.08,340.91 -23.69,340.74 -23.37,340.46 -23.11,340.06"/>
    </edge>
    <edge id=":gneJ13_0" function="internal">
        <lane id=":gneJ13_0_0" index="0" speed="6.13" length="10.33" shape="38.74,203.63 41.72,204.18 43.39,205.51 43.77,207.62 42.84,210.50"/>
    </edge>
    <edge id=":gneJ13_1" function="internal">
        <lane id=":gneJ13_1_0" index="0" speed="3.93" length="3.44" shape="39.96,209.12 40.27,208.15 40.14,207.45 39.58,207.01 38.59,206.82"/>
    </edge>
    <edge id=":gneJ14_0" function="internal">
        <lane id=":gneJ14_0_0" index="0" speed="4.02" length="1.68" shape="-292.48,191.40 -292.92,191.43 -293.30,191.57 -293.63,191.80 -293.90,192.14"/>
    </edge>
    <edge id=":gneJ14_1" function="internal">
        <lane id=":gneJ14_1_0" index="0" speed="6.30" length="5.03" shape="-296.59,190.40 -295.77,189.39 -294.78,188.69 -293.64,188.30 -292.33,188.21"/>
    </edge>
    <edge id=":gneJ15_0" function="internal">
        <lane id=":gneJ15_0_0" index="0" speed="6.10" length="9.57" shape="-360.96,301.87 -363.48,300.76 -364.78,299.19 -364.85,297.15 -363.70,294.65"/>
    </edge>
    <edge id=":gneJ15_1" function="internal">
        <lane id=":gneJ15_1_0" index="0" speed="3.91" length="3.19" shape="-361.01,296.39 -361.39,297.22 -361.37,297.90 -360.94,298.42 -360.10,298.79"/>
    </edge>

    <edge id="-gneE10" from="gneJ14" to="gneJ13" priority="-1">
        <lane id="-gneE10_0" index="0" speed="13.89" length="331.43" shape="-292.33,188.21 38.74,203.63"/>
    </edge>
    <edge id="-gneE11" from="gneJ15" to="gneJ14" priority="-1">
        <lane id="-gneE11_0" index="0" speed="13.89" length="123.98" shape="-363.70,294.65 -296.59,190.40"/>
    </edge>
    <edge id="-gneE12" from="gneJ11" to="gneJ15" priority="-1">
        <lane id="-gneE12_0" index="0" speed="13.89" length="157.90" shape="-208.95,344.61 -360.96,301.87"/>
    </edge>
    <edge id="-gneE8" from="gneJ12" to="gneJ11" priority="-1">
        <lane id="-gneE8_0" index="0" speed="13.89" length="183.10" shape="-24.54,344.17 -207.64,344.79"/>
    </edge>
    <edge id="-gneE9" from="gneJ13" to="gneJ12" priority="-1">
        <lane id="-gneE9_0" index="0" speed="13.89" length="145.34" shape="42.84,210.50 -20.23,341.45"/>
    </edge>
    <edge id="gneE10" from="gneJ13" to="gneJ14" priority="-1">
        <lane id="gneE10_0" index="0" speed="13.89" length="331.43" shape="38.59,206.82 -292.48,191.40"/>
    </edge>
    <edge id="gneE11" from="gneJ14" to="gneJ15" priority="-1">
        <lane id="gneE11_0" index="0" speed="13.89" length="123.98" shape="-293.90,192.14 -361.01,296.39"/>
    </edge>
    <edge id="gneE12" from="gneJ15" to="gneJ11" priority="-1">
        <lane id="gneE12_0" index="0" speed="13.89" length="157.90" shape="-360.10,298.79 -208.09,341.53"/>
    </edge>
    <edge id="gneE8" from="gneJ11" to="gneJ12" priority="-1">
        <lane id="gneE8_0" index="0" speed="13.89" length="183.10" shape="-207.65,341.59 -24.55,340.97"/>
    </edge>
    <edge id="gneE9" from="gneJ12" to="gneJ13" priority="-1">
        <lane id="gneE9_0" index="0" speed="13.89" length="145.34" shape="-23.11,340.06 39.96,209.12"/>
    </edge>

    <junction id="gneJ11" type="priority" x="-208.09" y="343.19" incLanes="-gneE8_0 gneE12_0" intLanes=":gneJ11_0_0 :gneJ11_1_0" shape="-207.63,346.39 -207.65,339.99 -209.39,346.15 -208.75,346.32 -208.52,346.36 -208.29,346.38 -208.01,346.39">
        <request index="0" response="00" foes="00" cont="0"/>
        <request index="1" response="00" foes="00" cont="0"/>
    </junction>
    <junction id="gneJ12" type="priority" x="-22.54" y="342.56" incLanes="-gneE9_0 gneE8_0" intLanes=":gneJ12_0_0 :gneJ12_1_0" shape="-18.79,342.14 -24.55,339.37 -24.53,345.77 -22.11,345.36 -21.09,344.85 -20.20,344.15 -19.43,343.25">
        <request index="0" response="00" foes="00" cont="0"/>
        <request index="1" response="00" foes="00" cont="0"/>
    </junction>
    <junction id="gneJ13" type="priority" x="43.50" y="205.45" incLanes="-gneE10_0 gneE9_0" intLanes=":gneJ13_0_0 :gneJ13_1_0" shape="38.81,202.03 38.52,208.42 44.28,211.20 45.30,208.52 45.54,206.30 45.02,204.55 43.72,203.25 41.65,202.41">
        <request index="0" response="00" foes="00" cont="0"/>
        <request index="1" response="00" foes="00" cont="0"/>
    </junction>
    <junction id="gneJ14" type="priority" x="-294.25" y="189.72" incLanes="gneE10_0 -gneE11_0" intLanes=":gneJ14_0_0 :gneJ14_1_0" shape="-292.56,193.00 -292.26,186.61 -294.53,186.86 -295.52,187.26 -296.42,187.83 -297.23,188.60 -297.94,189.54">
        <request index="0" response="00" foes="00" cont="0"/>
        <request index="1" response="00" foes="00" cont="0"/>
    </junction>
    <junction id="gneJ15" type="priority" x="-364.70" y="299.16" incLanes="-gneE12_0 gneE11_0" intLanes=":gneJ15_0_0 :gneJ15_1_0" shape="-361.40,303.41 -359.67,297.25 -365.05,293.79 -366.25,296.08 -366.72,298.09 -366.48,299.83 -365.51,301.30 -363.81,302.49">
        <request index="0" response="00" foes="00" cont="0"/>
        <request index="1" response="00" foes="00" cont="0"/>
    </junction>

    <connection from="-gneE10" to="-gneE9" fromLane="0" toLane="0" via=":gneJ13_0_0" dir="l" state="M"/>
    <connection from="-gneE11" to="-gneE10" fromLane="0" toLane="0" via=":gneJ14_1_0" dir="l" state="M"/>
    <connection from="-gneE12" to="-gneE11" fromLane="0" toLane="0" via=":gneJ15_0_0" dir="l" state="M"/>
    <connection from="-gneE8" to="-gneE12" fromLane="0" toLane="0" via=":gneJ11_0_0" dir="s" state="M"/>
    <connection from="-gneE9" to="-gneE8" fromLane="0" toLane="0" via=":gneJ12_0_0" dir="l" state="M"/>
    <connection from="gneE10" to="gneE11" fromLane="0" toLane="0" via=":gneJ14_0_0" dir="r" state="M"/>
    <connection from="gneE11" to="gneE12" fromLane="0" toLane="0" via=":gneJ15_1_0" dir="r" state="M"/>
    <connection from="gneE12" to="gneE8" fromLane="0" toLane="0" via=":gneJ11_1_0" dir="s" state="M"/>
    <connection from="gneE8" to="gneE9" fromLane="0" toLane="0" via=":gneJ12_1_0" dir="r" state="M"/>
    <connection from="gneE9" to="gneE10" fromLane="0" toLane="0" via=":gneJ13_1_0" dir="r" state="M"/>

    <connection from=":gneJ11_0" to="-gneE12" fromLane="0" toLane="0" dir="s" state="M"/>
    <connection from=":gneJ11_1" to="gneE8" fromLane="0" toLane="0" dir="s" state="M"/>
    <connection from=":gneJ12_0" to="-gneE8" fromLane="0" toLane="0" dir="l" state="M"/>
    <connection from=":gneJ12_1" to="gneE9" fromLane="0" toLane="0" dir="r" state="M"/>
    <connection from=":gneJ13_0" to="-gneE9" fromLane="0" toLane="0" dir="l" state="M"/>
    <connection from=":gneJ13_1" to="gneE10" fromLane="0" toLane="0" dir="r" state="M"/>
    <connection from=":gneJ14_0" to="gneE11" fromLane="0" toLane="0" dir="r" state="M"/>
    <connection from=":gneJ14_1" to="-gneE10" fromLane="0" toLane="0" dir="l" state="M"/>
    <connection from=":gneJ15_0" to="-gneE11" fromLane="0" toLane="0" dir="l" state="M"/>
    <connection from=":gneJ15_1" to="gneE12" fromLane="0" toLane="0" dir="r" state="M"/>

</net>
