<?xml version="1.0" encoding="UTF-8"?>

<!-- generated on 12/03/18 10:20:41 by Eclipse SUMO netconvert Version 1.0.1
<configuration xmlns:xsi="http://www.w3.org/2001/XMLSchema-instance" xsi:noNamespaceSchemaLocation="http://sumo.dlr.de/xsd/netconvertConfiguration.xsd">

    <input>
        <osm-files value="map.osm"/>
    </input>

    <output>
        <output-file value="map.net.xml"/>
    </output>

    <projection>
        <proj.utm value="true"/>
    </projection>

</configuration>
-->

<net version="1.0" junctionCornerDetail="5" limitTurnSpeed="5.50" xmlns:xsi="http://www.w3.org/2001/XMLSchema-instance" xsi:noNamespaceSchemaLocation="http://sumo.dlr.de/xsd/net_file.xsd">

    <location netOffset="-511427.52,-5401663.11" convBoundary="0.00,0.00,1877.66,1831.33" origBoundary="9.138247,48.752876,9.183569,48.784307" projParameter="+proj=utm +zone=32 +ellps=WGS84 +datum=WGS84 +units=m +no_defs"/>

    <type id="highway.bridleway" priority="1" numLanes="1" speed="2.78" allow="pedestrian" oneway="1" width="2.00"/>
    <type id="highway.bus_guideway" priority="1" numLanes="1" speed="27.78" allow="bus" oneway="1"/>
    <type id="highway.cycleway" priority="1" numLanes="1" speed="8.33" allow="bicycle" oneway="0" width="1.00"/>
    <type id="highway.footway" priority="1" numLanes="1" speed="2.78" allow="pedestrian" oneway="1" width="2.00"/>
    <type id="highway.ford" priority="1" numLanes="1" speed="2.78" allow="army" oneway="0"/>
    <type id="highway.living_street" priority="3" numLanes="1" speed="2.78" disallow="tram rail_urban rail rail_electric ship" oneway="0"/>
    <type id="highway.motorway" priority="13" numLanes="2" speed="44.44" allow="private emergency authority army vip passenger hov taxi bus coach delivery truck trailer motorcycle evehicle custom1 custom2" oneway="1"/>
    <type id="highway.motorway_link" priority="12" numLanes="1" speed="22.22" allow="private emergency authority army vip passenger hov taxi bus coach delivery truck trailer motorcycle evehicle custom1 custom2" oneway="1"/>
    <type id="highway.path" priority="1" numLanes="1" speed="2.78" allow="bicycle pedestrian" oneway="1" width="2.00"/>
    <type id="highway.pedestrian" priority="1" numLanes="1" speed="2.78" allow="pedestrian" oneway="1" width="2.00"/>
    <type id="highway.primary" priority="9" numLanes="2" speed="27.78" disallow="tram rail_urban rail rail_electric ship" oneway="0"/>
    <type id="highway.primary_link" priority="8" numLanes="1" speed="22.22" disallow="tram rail_urban rail rail_electric ship" oneway="0"/>
    <type id="highway.raceway" priority="14" numLanes="2" speed="83.33" allow="vip" oneway="0"/>
    <type id="highway.residential" priority="4" numLanes="1" speed="13.89" disallow="tram rail_urban rail rail_electric ship" oneway="0"/>
    <type id="highway.secondary" priority="7" numLanes="2" speed="27.78" disallow="tram rail_urban rail rail_electric ship" oneway="0"/>
    <type id="highway.secondary_link" priority="6" numLanes="1" speed="22.22" disallow="tram rail_urban rail rail_electric ship" oneway="0"/>
    <type id="highway.service" priority="2" numLanes="1" speed="5.56" allow="delivery bicycle pedestrian" oneway="0"/>
    <type id="highway.stairs" priority="1" numLanes="1" speed="1.39" allow="pedestrian" oneway="1" width="2.00"/>
    <type id="highway.step" priority="1" numLanes="1" speed="1.39" allow="pedestrian" oneway="1" width="2.00"/>
    <type id="highway.steps" priority="1" numLanes="1" speed="1.39" allow="pedestrian" oneway="1" width="2.00"/>
    <type id="highway.tertiary" priority="6" numLanes="1" speed="22.22" disallow="tram rail_urban rail rail_electric ship" oneway="0"/>
    <type id="highway.tertiary_link" priority="5" numLanes="1" speed="22.22" disallow="tram rail_urban rail rail_electric ship" oneway="0"/>
    <type id="highway.track" priority="1" numLanes="1" speed="5.56" disallow="tram rail_urban rail rail_electric ship" oneway="0"/>
    <type id="highway.trunk" priority="11" numLanes="2" speed="27.78" disallow="tram rail_urban rail rail_electric bicycle pedestrian ship" oneway="0"/>
    <type id="highway.trunk_link" priority="10" numLanes="1" speed="22.22" disallow="tram rail_urban rail rail_electric bicycle pedestrian ship" oneway="0"/>
    <type id="highway.unclassified" priority="5" numLanes="1" speed="13.89" disallow="tram rail_urban rail rail_electric ship" oneway="0"/>
    <type id="highway.unsurfaced" priority="1" numLanes="1" speed="8.33" disallow="tram rail_urban rail rail_electric ship" oneway="0"/>
    <type id="railway.light_rail" priority="15" numLanes="1" speed="27.78" allow="rail_urban" oneway="1"/>
    <type id="railway.preserved" priority="15" numLanes="1" speed="27.78" allow="rail" oneway="1"/>
    <type id="railway.rail" priority="15" numLanes="1" speed="83.33" allow="rail rail_electric" oneway="1"/>
    <type id="railway.subway" priority="15" numLanes="1" speed="27.78" allow="rail_urban" oneway="1"/>
    <type id="railway.tram" priority="15" numLanes="1" speed="13.89" allow="tram" oneway="1"/>

    <edge id=":1057852266_0" function="internal">
        <lane id=":1057852266_0_0" index="0" disallow="tram rail_urban rail rail_electric ship" speed="3.65" length="4.67" shape="1341.36,755.77 1341.12,757.19 1340.56,757.88 1339.66,757.85 1338.44,757.08"/>
    </edge>
    <edge id=":1161770177_0" function="internal">
        <lane id=":1161770177_0_0" index="0" disallow="tram rail_urban rail rail_electric ship" speed="8.33" length="10.32" shape="966.78,651.48 964.21,652.82 962.07,652.95 959.81,652.86 956.87,653.56"/>
    </edge>
    <edge id=":1161770177_1" function="internal">
        <lane id=":1161770177_1_0" index="0" disallow="tram rail_urban rail rail_electric ship" speed="3.65" length="4.67" shape="966.78,651.48 965.34,651.58 964.53,651.19 964.36,650.31 964.82,648.95"/>
    </edge>
    <edge id=":1161770177_2" function="internal">
        <lane id=":1161770177_2_0" index="0" disallow="tram rail_urban rail rail_electric ship" speed="8.33" length="8.97" shape="955.64,650.61 957.93,649.63 959.46,648.87 960.88,647.92 962.86,646.42"/>
        <lane id=":1161770177_2_1" index="1" disallow="tram rail_urban rail rail_electric ship" speed="8.33" length="8.97" shape="955.64,650.61 958.37,649.99 960.46,650.17 962.43,650.16 964.82,648.95"/>
    </edge>
    <edge id=":1161770177_4" function="internal">
        <lane id=":1161770177_4_0" index="0" disallow="tram rail_urban rail rail_electric ship" speed="3.65" length="4.67" shape="955.64,650.61 957.06,650.89 957.74,651.47 957.67,652.36 956.87,653.56"/>
    </edge>
    <edge id=":1165363219_0" function="internal">
        <lane id=":1165363219_0_0" index="0" disallow="tram rail_urban rail rail_electric ship" speed="3.84" length="3.60" shape="1072.08,663.29 1071.71,663.88 1071.85,664.51 1072.49,665.18 1073.63,665.88"/>
    </edge>
    <edge id=":1165363219_1" function="internal">
        <lane id=":1165363219_1_0" index="0" allow="bicycle pedestrian" speed="2.78" length="6.59" width="2.00" shape="1072.08,663.29 1070.65,664.63 1069.71,665.58 1068.84,666.60 1067.64,668.15"/>
    </edge>
    <edge id=":1165363219_2" function="internal">
        <lane id=":1165363219_2_0" index="0" disallow="tram rail_urban rail rail_electric ship" speed="13.89" length="5.35" shape="1068.76,663.48 1073.63,665.88"/>
        <lane id=":1165363219_2_1" index="1" disallow="tram rail_urban rail rail_electric ship" speed="13.89" length="5.35" shape="1067.43,666.40 1072.16,668.72"/>
    </edge>
    <edge id=":1165363219_4" function="internal">
        <lane id=":1165363219_4_0" index="0" allow="bicycle pedestrian" speed="3.46" length="2.13" width="2.00" shape="1067.43,666.40 1067.88,666.70 1068.07,667.09 1067.98,667.57 1067.64,668.15"/>
    </edge>
    <edge id=":1165363229_0" function="internal">
        <lane id=":1165363229_0_0" index="0" allow="bicycle pedestrian" speed="2.78" length="10.04" width="2.00" shape="1042.57,647.90 1033.38,643.85"/>
    </edge>
    <edge id=":1165363229_1" function="internal">
        <lane id=":1165363229_1_0" index="0" disallow="tram rail_urban rail rail_electric ship" speed="5.06" length="2.63" shape="1042.57,647.90 1040.99,646.91 1040.71,646.19"/>
    </edge>
    <edge id=":1165363229_2" function="internal">
        <lane id=":1165363229_2_0" index="0" allow="bicycle pedestrian" speed="2.78" length="1.46" width="2.00" shape="1042.57,647.90 1042.06,647.15 1042.02,646.60"/>
    </edge>
    <edge id=":1165363229_9" function="internal">
        <lane id=":1165363229_9_0" index="0" speed="5.06" length="4.70" shape="1040.71,646.19 1040.49,645.64 1041.06,644.09 1042.71,642.27"/>
    </edge>
    <edge id=":1165363229_10" function="internal">
        <lane id=":1165363229_10_0" index="0" speed="2.78" length="1.46" width="2.00" shape="1042.02,646.60 1042.44,646.23 1043.32,646.05"/>
    </edge>
    <edge id=":1165363229_3" function="internal">
        <lane id=":1165363229_3_0" index="0" disallow="tram rail_urban rail rail_electric ship" speed="7.52" length="8.96" shape="1034.24,642.05 1036.91,643.08 1039.20,643.46 1041.14,643.19 1042.71,642.27"/>
    </edge>
    <edge id=":1165363229_4" function="internal">
        <lane id=":1165363229_4_0" index="0" allow="bicycle pedestrian" speed="2.78" length="9.92" width="2.00" shape="1034.24,642.05 1043.32,646.05"/>
    </edge>
    <edge id=":1165363229_5" function="internal">
        <lane id=":1165363229_5_0" index="0" allow="bicycle pedestrian" speed="2.78" length="1.46" width="2.00" shape="1034.24,642.05 1034.71,642.82 1034.72,643.38"/>
    </edge>
    <edge id=":1165363229_11" function="internal">
        <lane id=":1165363229_11_0" index="0" speed="2.78" length="1.46" width="2.00" shape="1034.72,643.38 1034.28,643.73 1033.38,643.85"/>
    </edge>
    <edge id=":1165363229_6" function="internal">
        <lane id=":1165363229_6_0" index="0" allow="bicycle pedestrian" speed="3.75" length="3.72" width="2.00" shape="1035.11,646.08 1035.65,645.72 1035.55,645.23 1034.79,644.61 1033.38,643.85"/>
    </edge>
    <edge id=":1165363229_7" function="internal">
        <lane id=":1165363229_7_0" index="0" disallow="tram rail_urban rail rail_electric ship" speed="13.89" length="8.61" shape="1035.11,646.08 1037.56,645.32 1039.24,644.74 1040.76,643.88 1042.71,642.27"/>
    </edge>
    <edge id=":1165363229_8" function="internal">
        <lane id=":1165363229_8_0" index="0" allow="bicycle pedestrian" speed="8.33" length="0.51" width="2.00" shape="1035.11,646.08 1035.60,645.92"/>
    </edge>
    <edge id=":1165363229_12" function="internal">
        <lane id=":1165363229_12_0" index="0" speed="8.33" length="8.00" width="2.00" shape="1035.60,645.92 1037.50,645.31 1039.25,645.00 1040.98,645.22 1043.32,646.05"/>
    </edge>
    <edge id=":1165363262_0" function="internal">
        <lane id=":1165363262_0_0" index="0" disallow="tram rail_urban rail rail_electric ship" speed="13.89" length="15.61" shape="1054.92,656.81 1052.46,652.66 1050.41,649.80 1049.20,646.81 1049.28,642.28"/>
        <lane id=":1165363262_0_1" index="1" disallow="tram rail_urban rail rail_electric ship" speed="13.89" length="15.61" shape="1057.83,655.48 1055.56,651.56 1053.73,648.88 1052.59,646.07 1052.42,641.75"/>
    </edge>
    <edge id=":1165363262_2" function="internal">
        <lane id=":1165363262_2_0" index="0" disallow="tram rail_urban rail rail_electric ship" speed="8.33" length="12.92" shape="1064.33,657.95 1060.11,655.96 1056.66,654.82 1054.00,654.50 1052.13,655.03"/>
    </edge>
    <edge id=":1165363262_3" function="internal">
        <lane id=":1165363262_3_0" index="0" allow="bicycle pedestrian" speed="2.78" length="22.12" width="2.00" shape="1064.33,657.95 1059.98,655.78 1054.38,653.11 1048.75,650.53 1044.29,648.60"/>
    </edge>
    <edge id=":1165363262_4" function="internal">
        <lane id=":1165363262_4_0" index="0" disallow="tram rail_urban rail rail_electric ship" speed="8.33" length="7.38" shape="1064.33,657.95 1058.85,654.47 1058.22,653.84"/>
    </edge>
    <edge id=":1165363262_5" function="internal">
        <lane id=":1165363262_5_0" index="0" allow="bicycle pedestrian" speed="2.78" length="1.46" width="2.00" shape="1064.33,657.95 1063.90,657.16 1063.91,656.60"/>
    </edge>
    <edge id=":1165363262_12" function="internal">
        <lane id=":1165363262_12_0" index="0" speed="8.33" length="13.93" shape="1058.22,653.84 1055.04,650.62 1052.90,646.38 1052.42,641.75"/>
    </edge>
    <edge id=":1165363262_13" function="internal">
        <lane id=":1165363262_13_0" index="0" speed="2.78" length="1.46" width="2.00" shape="1063.91,656.60 1064.36,656.27 1065.26,656.17"/>
    </edge>
    <edge id=":1165363262_6" function="internal">
        <lane id=":1165363262_6_0" index="0" disallow="tram rail_urban rail rail_electric ship" speed="13.89" length="15.75" shape="1060.67,641.31 1058.87,645.94 1057.69,649.29 1055.86,652.09 1052.13,655.03"/>
        <lane id=":1165363262_6_1" index="1" disallow="tram rail_urban rail rail_electric ship" speed="13.89" length="15.75" shape="1057.77,639.96 1056.19,644.12 1055.21,647.17 1053.65,649.72 1050.34,652.38"/>
    </edge>
    <edge id=":1165363262_8" function="internal">
        <lane id=":1165363262_8_0" index="0" disallow="tram rail_urban rail rail_electric ship" speed="5.35" length="7.28" shape="1045.04,646.75 1046.57,646.98 1047.78,646.31 1048.69,644.75 1049.28,642.28"/>
    </edge>
    <edge id=":1165363262_9" function="internal">
        <lane id=":1165363262_9_0" index="0" allow="bicycle pedestrian" speed="2.78" length="22.31" width="2.00" shape="1045.04,646.75 1049.53,648.69 1055.22,651.30 1060.88,653.99 1065.26,656.17"/>
    </edge>
    <edge id=":1165363262_10" function="internal">
        <lane id=":1165363262_10_0" index="0" disallow="tram rail_urban rail rail_electric ship" speed="5.44" length="7.05" shape="1045.04,646.75 1048.61,648.41 1050.68,649.91 1050.90,650.42"/>
    </edge>
    <edge id=":1165363262_11" function="internal">
        <lane id=":1165363262_11_0" index="0" allow="bicycle pedestrian" speed="2.78" length="1.46" width="2.00" shape="1045.04,646.75 1045.55,647.49 1045.59,648.05"/>
    </edge>
    <edge id=":1165363262_14" function="internal">
        <lane id=":1165363262_14_0" index="0" speed="5.44" length="2.36" shape="1050.90,650.42 1051.26,651.23 1050.34,652.38"/>
    </edge>
    <edge id=":1165363262_15" function="internal">
        <lane id=":1165363262_15_0" index="0" speed="2.78" length="1.46" width="2.00" shape="1045.59,648.05 1045.17,648.42 1044.29,648.60"/>
    </edge>
    <edge id=":1165363266_0" function="internal">
        <lane id=":1165363266_0_0" index="0" allow="bicycle pedestrian" speed="4.74" length="4.61" width="2.00" shape="1066.20,674.12 1065.28,673.42 1064.31,673.27 1063.31,673.65 1062.27,674.58"/>
    </edge>
    <edge id=":1165363266_1" function="internal">
        <lane id=":1165363266_1_0" index="0" disallow="tram rail_urban rail rail_electric ship" speed="13.89" length="4.51" shape="1066.20,674.12 1065.23,673.09 1064.58,672.38 1063.98,671.62 1063.17,670.45"/>
        <lane id=":1165363266_1_1" index="1" disallow="tram rail_urban rail rail_electric ship" speed="13.89" length="4.51" shape="1068.54,671.93 1067.67,671.02 1067.08,670.38 1066.55,669.70 1065.83,668.67"/>
    </edge>
    <edge id=":1165363266_3" function="internal">
        <lane id=":1165363266_3_0" index="0" allow="bicycle pedestrian" speed="2.78" length="8.18" width="2.00" shape="1067.51,668.30 1062.27,674.58"/>
    </edge>
    <edge id=":1165363266_4" function="internal">
        <lane id=":1165363266_4_0" index="0" disallow="tram rail_urban rail rail_electric ship" speed="3.15" length="2.12" shape="1067.51,668.30 1067.02,668.83 1066.58,669.06 1066.18,669.01 1065.83,668.67"/>
    </edge>
    <edge id=":1165363273_0" function="internal">
        <lane id=":1165363273_0_0" index="0" disallow="tram rail_urban rail rail_electric ship" speed="13.89" length="13.06" shape="1051.96,655.14 1048.46,657.11 1045.64,658.08 1042.88,658.37 1039.60,658.29"/>
    </edge>
    <edge id=":1165363273_1" function="internal">
        <lane id=":1165363273_1_0" index="0" disallow="tram rail_urban rail rail_electric ship" speed="13.89" length="15.13" shape="1039.03,650.17 1052.86,656.37"/>
        <lane id=":1165363273_1_1" index="1" disallow="tram rail_urban rail rail_electric ship" speed="13.89" length="15.13" shape="1037.74,653.10 1051.52,659.28"/>
    </edge>
    <edge id=":1165363296_0" function="internal">
        <lane id=":1165363296_0_0" index="0" disallow="tram rail_urban rail rail_electric ship" speed="13.89" length="15.31" shape="1063.06,670.29 1060.44,666.48 1058.66,663.85 1057.07,661.12 1055.00,656.99"/>
        <lane id=":1165363296_0_1" index="1" disallow="tram rail_urban rail rail_electric ship" speed="13.89" length="15.31" shape="1065.71,668.50 1063.18,664.82 1061.45,662.28 1059.91,659.65 1057.91,655.66"/>
    </edge>
    <edge id=":1165363296_2" function="internal">
        <lane id=":1165363296_2_0" index="0" disallow="tram rail_urban rail rail_electric ship" speed="13.89" length="17.03" shape="1053.05,656.46 1068.57,663.40"/>
        <lane id=":1165363296_2_1" index="1" disallow="tram rail_urban rail rail_electric ship" speed="13.89" length="17.03" shape="1051.70,659.36 1067.25,666.32"/>
    </edge>
    <edge id=":1186002457_0" function="internal">
        <lane id=":1186002457_0_0" index="0" disallow="tram rail_urban rail rail_electric ship" speed="13.89" length="9.11" shape="1392.88,165.33 1390.75,166.77 1388.97,167.40 1387.34,168.15 1385.68,170.00"/>
        <lane id=":1186002457_0_1" index="1" disallow="tram rail_urban rail rail_electric ship" speed="13.89" length="9.11" shape="1390.71,162.97 1388.41,164.57 1386.52,165.32 1384.79,166.20 1383.01,168.24"/>
    </edge>
    <edge id=":1186002457_2" function="internal">
        <lane id=":1186002457_2_0" index="0" disallow="tram rail_urban rail rail_electric ship" speed="3.65" length="2.51" shape="1390.71,162.97 1389.29,163.19 1388.45,162.87 1388.40,162.71"/>
    </edge>
    <edge id=":1186002457_4" function="internal">
        <lane id=":1186002457_4_0" index="0" speed="3.65" length="2.16" shape="1388.40,162.71 1388.20,162.01 1388.55,160.61"/>
    </edge>
    <edge id=":1186002457_3" function="internal">
        <lane id=":1186002457_3_0" index="0" disallow="tram rail_urban rail rail_electric ship" speed="13.89" length="10.37" shape="1379.20,164.89 1382.00,163.69 1384.14,163.13 1386.15,162.37 1388.55,160.61"/>
    </edge>
    <edge id=":1186002458_0" function="internal">
        <lane id=":1186002458_0_0" index="0" disallow="tram rail_urban rail rail_electric ship" speed="13.89" length="8.98" shape="1326.69,151.44 1329.10,150.38 1330.59,149.29 1332.07,148.18 1334.46,147.04"/>
    </edge>
    <edge id=":1186002458_1" function="internal">
        <lane id=":1186002458_1_0" index="0" disallow="tram rail_urban rail rail_electric ship" speed="13.89" length="9.50" shape="1326.11,152.74 1328.16,150.50 1329.76,149.12 1331.62,148.13 1334.46,147.04"/>
        <lane id=":1186002458_1_1" index="1" disallow="tram rail_urban rail rail_electric ship" speed="13.89" length="9.50" shape="1328.50,154.86 1330.23,152.96 1331.59,151.80 1333.16,150.97 1335.56,150.05"/>
    </edge>
    <edge id=":1186002461_0" function="internal">
        <lane id=":1186002461_0_0" index="0" disallow="tram rail_urban rail rail_electric ship" speed="13.89" length="4.20" shape="1389.36,177.70 1392.62,180.54"/>
        <lane id=":1186002461_0_1" index="1" disallow="tram rail_urban rail rail_electric ship" speed="13.89" length="4.20" shape="1387.36,180.20 1390.44,182.88"/>
    </edge>
    <edge id=":1186002463_0" function="internal">
        <lane id=":1186002463_0_0" index="0" disallow="tram rail_urban rail rail_electric ship" speed="5.54" length="4.66" shape="1374.95,163.27 1376.21,164.30 1377.31,164.93 1378.25,165.16 1379.03,164.98"/>
    </edge>
    <edge id=":1186002463_1" function="internal">
        <lane id=":1186002463_1_0" index="0" disallow="tram rail_urban rail rail_electric ship" speed="13.89" length="3.97" shape="1372.78,165.63 1373.75,166.20 1374.60,166.27 1375.45,166.34 1376.43,166.89"/>
        <lane id=":1186002463_1_1" index="1" disallow="tram rail_urban rail rail_electric ship" speed="13.89" length="3.97" shape="1370.62,167.98 1371.59,168.56 1372.45,168.64 1373.31,168.72 1374.30,169.27"/>
    </edge>
    <edge id=":1186002465_0" function="internal">
        <lane id=":1186002465_0_0" index="0" disallow="tram rail_urban rail rail_electric ship" speed="13.89" length="8.78" shape="1312.94,166.30 1312.05,163.85 1311.42,162.18 1310.68,160.55 1309.47,158.24"/>
    </edge>
    <edge id=":1186002465_1" function="internal">
        <lane id=":1186002465_1_0" index="0" disallow="tram rail_urban rail rail_electric ship" speed="6.19" length="7.33" shape="1306.25,164.15 1308.19,162.54 1309.37,161.02 1309.80,159.59 1309.47,158.24"/>
    </edge>
    <edge id=":1186002465_2" function="internal">
        <lane id=":1186002465_2_0" index="0" disallow="tram rail_urban rail rail_electric ship" speed="11.11" length="11.19" shape="1306.25,164.15 1315.38,157.69"/>
    </edge>
    <edge id=":1186002466_0" function="internal">
        <lane id=":1186002466_0_0" index="0" disallow="tram rail_urban rail rail_electric ship" speed="13.89" length="0.52" shape="1321.27,153.30 1321.40,153.21 1321.49,153.15 1321.59,153.11 1321.73,153.06"/>
    </edge>
    <edge id=":1186002472_0" function="internal">
        <lane id=":1186002472_0_0" index="0" disallow="tram rail_urban rail rail_electric ship" speed="13.89" length="0.25" shape="1336.75,146.21 1337.10,146.09"/>
        <lane id=":1186002472_0_1" index="1" disallow="tram rail_urban rail rail_electric ship" speed="13.89" length="0.25" shape="1337.84,149.21 1337.96,149.17"/>
    </edge>
    <edge id=":1253191781_0" function="internal">
        <lane id=":1253191781_0_0" index="0" allow="delivery bicycle pedestrian" speed="5.56" length="5.00" shape="970.19,684.27 966.89,688.03"/>
    </edge>
    <edge id=":1253191781_1" function="internal">
        <lane id=":1253191781_1_0" index="0" allow="delivery bicycle pedestrian" speed="3.65" length="2.34" shape="970.19,684.27 968.80,684.65 967.93,684.42"/>
    </edge>
    <edge id=":1253191781_4" function="internal">
        <lane id=":1253191781_4_0" index="0" speed="3.65" length="2.34" shape="967.93,684.42 967.60,683.59 967.79,682.16"/>
    </edge>
    <edge id=":1253191781_2" function="internal">
        <lane id=":1253191781_2_0" index="0" allow="delivery bicycle pedestrian" speed="5.56" length="5.00" shape="964.48,685.91 967.79,682.16"/>
    </edge>
    <edge id=":1253191781_3" function="internal">
        <lane id=":1253191781_3_0" index="0" allow="delivery bicycle pedestrian" speed="3.65" length="2.34" shape="964.48,685.91 965.88,685.54 966.74,685.77"/>
    </edge>
    <edge id=":1253191781_5" function="internal">
        <lane id=":1253191781_5_0" index="0" speed="3.65" length="2.34" shape="966.74,685.77 967.08,686.60 966.89,688.03"/>
    </edge>
    <edge id=":1253191785_0" function="internal">
        <lane id=":1253191785_0_0" index="0" allow="delivery bicycle pedestrian" speed="3.65" length="4.67" shape="1073.93,744.50 1074.32,745.89 1074.10,746.76 1073.27,747.11 1071.84,746.93"/>
    </edge>
    <edge id=":1253191831_0" function="internal">
        <lane id=":1253191831_0_0" index="0" allow="delivery bicycle pedestrian" speed="3.65" length="4.67" shape="1090.16,746.45 1089.49,747.73 1088.74,748.21 1087.90,747.90 1086.98,746.79"/>
    </edge>
    <edge id=":1253191833_0" function="internal">
        <lane id=":1253191833_0_0" index="0" allow="delivery bicycle pedestrian" speed="5.56" length="3.71" shape="1029.27,695.23 1032.11,697.61"/>
    </edge>
    <edge id=":1253191971_0" function="internal">
        <lane id=":1253191971_0_0" index="0" allow="delivery bicycle pedestrian" speed="5.56" length="8.21" shape="1025.33,665.47 1023.23,666.55 1022.05,667.70 1021.05,669.13 1019.49,671.02"/>
    </edge>
    <edge id=":1253191971_1" function="internal">
        <lane id=":1253191971_1_0" index="0" allow="delivery bicycle pedestrian" speed="5.56" length="4.35" shape="1025.33,665.47 1023.37,665.85 1021.85,665.26 1021.45,664.66"/>
    </edge>
    <edge id=":1253191971_4" function="internal">
        <lane id=":1253191971_4_0" index="0" speed="5.56" length="3.75" shape="1021.45,664.66 1020.80,663.70 1020.20,661.18"/>
    </edge>
    <edge id=":1253191971_2" function="internal">
        <lane id=":1253191971_2_0" index="0" allow="delivery bicycle pedestrian" speed="5.56" length="8.47" shape="1017.18,668.80 1018.68,666.95 1019.69,665.07 1020.19,663.14 1020.20,661.18"/>
    </edge>
    <edge id=":1253191971_3" function="internal">
        <lane id=":1253191971_3_0" index="0" allow="delivery bicycle pedestrian" speed="3.65" length="2.21" shape="1017.18,668.80 1018.59,668.49 1019.32,668.72"/>
    </edge>
    <edge id=":1253191971_5" function="internal">
        <lane id=":1253191971_5_0" index="0" speed="3.65" length="2.47" shape="1019.32,668.72 1019.44,668.76 1019.74,669.60 1019.49,671.02"/>
    </edge>
    <edge id=":1257304645_0" function="internal">
        <lane id=":1257304645_0_0" index="0" allow="delivery bicycle pedestrian" speed="3.65" length="4.67" shape="799.02,647.19 797.79,647.94 796.90,647.97 796.34,647.28 796.11,645.85"/>
    </edge>
    <edge id=":1257304653_0" function="internal">
        <lane id=":1257304653_0_0" index="0" allow="delivery bicycle pedestrian" speed="3.65" length="4.67" shape="805.21,596.35 804.45,595.13 804.41,594.24 805.10,593.67 806.52,593.43"/>
    </edge>
    <edge id=":1257304693_0" function="internal">
        <lane id=":1257304693_0_0" index="0" allow="delivery bicycle pedestrian" speed="4.98" length="5.08" shape="806.15,639.32 804.83,638.84 803.70,638.91 802.75,639.54 801.99,640.72"/>
    </edge>
    <edge id=":1257304693_1" function="internal">
        <lane id=":1257304693_1_0" index="0" allow="delivery bicycle pedestrian" speed="5.56" length="10.63" shape="806.15,639.32 803.25,638.09 800.99,637.34 799.16,636.19 797.52,633.75"/>
    </edge>
    <edge id=":1257304693_2" function="internal">
        <lane id=":1257304693_2_0" index="0" allow="delivery bicycle pedestrian" speed="5.56" length="10.99" shape="806.15,639.32 803.86,637.60 802.65,635.46 802.50,632.91 803.43,629.94"/>
    </edge>
    <edge id=":1257304693_3" function="internal">
        <lane id=":1257304693_3_0" index="0" allow="delivery bicycle pedestrian" speed="3.65" length="4.67" shape="806.15,639.32 805.47,638.05 805.50,637.15 806.23,636.64 807.66,636.50"/>
    </edge>
    <edge id=":1257304693_4" function="internal">
        <lane id=":1257304693_4_0" index="0" allow="delivery bicycle pedestrian" speed="5.56" length="6.05" shape="806.34,631.29 805.79,632.97 805.83,634.39 806.46,635.57 807.66,636.50"/>
    </edge>
    <edge id=":1257304693_5" function="internal">
        <lane id=":1257304693_5_0" index="0" allow="delivery bicycle pedestrian" speed="5.56" length="10.38" shape="806.34,631.29 801.99,640.72"/>
    </edge>
    <edge id=":1257304693_6" function="internal">
        <lane id=":1257304693_6_0" index="0" allow="delivery bicycle pedestrian" speed="5.56" length="13.41" shape="806.34,631.29 803.95,635.42 801.68,637.21 799.54,636.65 797.52,633.75"/>
    </edge>
    <edge id=":1257304693_7" function="internal">
        <lane id=":1257304693_7_0" index="0" allow="delivery bicycle pedestrian" speed="3.65" length="4.67" shape="806.34,631.29 805.11,632.04 804.21,632.07 803.66,631.37 803.43,629.94"/>
    </edge>
    <edge id=":1257304693_8" function="internal">
        <lane id=":1257304693_8_0" index="0" allow="delivery bicycle pedestrian" speed="4.50" length="5.75" shape="799.64,630.77 800.53,632.08 801.46,632.37 802.43,631.66 803.43,629.94"/>
    </edge>
    <edge id=":1257304693_9" function="internal">
        <lane id=":1257304693_9_0" index="0" allow="delivery bicycle pedestrian" speed="5.56" length="10.19" shape="799.64,630.77 801.18,633.21 802.82,634.43 804.88,635.25 807.66,636.50"/>
    </edge>
    <edge id=":1257304693_10" function="internal">
        <lane id=":1257304693_10_0" index="0" allow="delivery bicycle pedestrian" speed="5.56" length="10.44" shape="799.64,630.77 801.11,634.15 802.00,636.94 802.29,639.13 801.99,640.72"/>
    </edge>
    <edge id=":1257304693_11" function="internal">
        <lane id=":1257304693_11_0" index="0" allow="delivery bicycle pedestrian" speed="3.82" length="5.34" shape="799.64,630.77 800.23,632.31 800.07,633.32 799.17,633.80 797.52,633.75"/>
    </edge>
    <edge id=":1257304693_12" function="internal">
        <lane id=":1257304693_12_0" index="0" allow="delivery bicycle pedestrian" speed="5.56" length="5.94" shape="799.08,639.38 799.19,638.57 798.97,637.37 798.41,635.76 797.52,633.75"/>
    </edge>
    <edge id=":1257304693_13" function="internal">
        <lane id=":1257304693_13_0" index="0" allow="delivery bicycle pedestrian" speed="5.56" length="10.39" shape="799.08,639.38 803.43,629.94"/>
    </edge>
    <edge id=":1257304693_14" function="internal">
        <lane id=":1257304693_14_0" index="0" allow="delivery bicycle pedestrian" speed="5.56" length="10.47" shape="799.08,639.38 800.65,636.95 802.61,635.66 804.94,635.51 807.66,636.50"/>
    </edge>
    <edge id=":1257304693_15" function="internal">
        <lane id=":1257304693_15_0" index="0" allow="delivery bicycle pedestrian" speed="3.65" length="4.67" shape="799.08,639.38 800.31,638.62 801.21,638.60 801.77,639.29 801.99,640.72"/>
    </edge>
    <edge id=":1257304717_0" function="internal">
        <lane id=":1257304717_0_0" index="0" disallow="tram rail_urban rail rail_electric ship" speed="13.89" length="9.38" shape="832.29,645.37 828.14,653.79"/>
    </edge>
    <edge id=":1257304717_1" function="internal">
        <lane id=":1257304717_1_0" index="0" allow="delivery bicycle pedestrian" speed="6.86" length="5.08" shape="832.29,645.37 830.71,647.66 828.78,648.90"/>
    </edge>